# generated using pymatgen
data_Os
_symmetry_space_group_name_H-M   'P 1'
_cell_length_a   2.74405204
_cell_length_b   2.74415114
_cell_length_c   6.78187249
_cell_angle_alpha   78.32753808
_cell_angle_beta   78.32684081
_cell_angle_gamma   60.00308832
_symmetry_Int_Tables_number   1
_chemical_formula_structural   Os
_chemical_formula_sum   Os3
_cell_volume   43.00374852
_cell_formula_units_Z   3
loop_
 _symmetry_equiv_pos_site_id
 _symmetry_equiv_pos_as_xyz
  1  'x, y, z'
loop_
 _atom_site_type_symbol
 _atom_site_label
 _atom_site_symmetry_multiplicity
 _atom_site_fract_x
 _atom_site_fract_y
 _atom_site_fract_z
 _atom_site_occupancy
  Os  Os0  1  0.87855045  0.89648040  0.63525283  1
  Os  Os1  1  0.65631991  0.67471194  0.29994911  1
  Os  Os2  1  0.43542891  0.45299514  0.96467677  1
