# generated using pymatgen
data_ReOs2
_symmetry_space_group_name_H-M   'P 1'
_cell_length_a   2.77007556
_cell_length_b   5.18411524
_cell_length_c   6.49975148
_cell_angle_alpha   103.21365365
_cell_angle_beta   90.00270083
_cell_angle_gamma   105.49782458
_symmetry_Int_Tables_number   1
_chemical_formula_structural   ReOs2
_chemical_formula_sum   'Re2 Os4'
_cell_volume   87.37780774
_cell_formula_units_Z   2
loop_
 _symmetry_equiv_pos_site_id
 _symmetry_equiv_pos_as_xyz
  1  'x, y, z'
loop_
 _atom_site_type_symbol
 _atom_site_label
 _atom_site_symmetry_multiplicity
 _atom_site_fract_x
 _atom_site_fract_y
 _atom_site_fract_z
 _atom_site_occupancy
  Re  Re0  1  0.56319243  0.65995473  0.32985372  1
  Re  Re1  1  0.89287015  0.31933816  0.99023232  1
  Os  Os2  1  0.22798099  0.98957810  0.66096209  1
  Os  Os3  1  0.95081990  0.43526293  0.60505524  1
  Os  Os4  1  0.61573063  0.76508729  0.93736202  1
  Os  Os5  1  0.28419155  0.10199115  0.27203033  1
