# generated using pymatgen
data_ReOs5
_symmetry_space_group_name_H-M   'P 1'
_cell_length_a   2.76136848
_cell_length_b   5.17112426
_cell_length_c   6.47946335
_cell_angle_alpha   103.32363893
_cell_angle_beta   89.99926412
_cell_angle_gamma   105.48436564
_symmetry_Int_Tables_number   1
_chemical_formula_structural   ReOs5
_chemical_formula_sum   'Re1 Os5'
_cell_volume   86.57763137
_cell_formula_units_Z   1
loop_
 _symmetry_equiv_pos_site_id
 _symmetry_equiv_pos_as_xyz
  1  'x, y, z'
loop_
 _atom_site_type_symbol
 _atom_site_label
 _atom_site_symmetry_multiplicity
 _atom_site_fract_x
 _atom_site_fract_y
 _atom_site_fract_z
 _atom_site_occupancy
  Re  Re0  1  0.75423735  0.44867118  0.59221364  1
  Os  Os1  1  0.42107164  0.78228885  0.92631825  1
  Os  Os2  1  0.08785524  0.11573658  0.25892628  1
  Os  Os3  1  0.47611449  0.89224949  0.53658694  1
  Os  Os4  1  0.14361158  0.22733964  0.87120952  1
  Os  Os5  1  0.81006396  0.56013375  0.20290214  1
