# generated using pymatgen
data_Os5W
_symmetry_space_group_name_H-M   'P 1'
_cell_length_a   2.78106251
_cell_length_b   5.19967024
_cell_length_c   6.51484989
_cell_angle_alpha   103.68477264
_cell_angle_beta   89.99969655
_cell_angle_gamma   105.51090361
_symmetry_Int_Tables_number   1
_chemical_formula_structural   Os5W
_chemical_formula_sum   'Os5 W1'
_cell_volume   87.99899634
_cell_formula_units_Z   1
loop_
 _symmetry_equiv_pos_site_id
 _symmetry_equiv_pos_as_xyz
  1  'x, y, z'
loop_
 _atom_site_type_symbol
 _atom_site_label
 _atom_site_symmetry_multiplicity
 _atom_site_fract_x
 _atom_site_fract_y
 _atom_site_fract_z
 _atom_site_occupancy
  Os  Os0  1  0.05019182  0.07533466  0.47587048  1
  Os  Os1  1  0.99536028  0.96565383  0.87040837  1
  Os  Os2  1  0.65979440  0.29448127  0.19598823  1
  Os  Os3  1  0.71557364  0.40621938  0.81310562  1
  Os  Os4  1  0.38318093  0.74130003  0.14145558  1
  W  W5  1  0.32792933  0.63078614  0.53183329  1
