# generated using pymatgen
data_Ir2Os
_symmetry_space_group_name_H-M   'P 1'
_cell_length_a   2.72635271
_cell_length_b   3.88410004
_cell_length_c   4.74967975
_cell_angle_alpha   114.13455477
_cell_angle_beta   106.67925994
_cell_angle_gamma   90.00003557
_symmetry_Int_Tables_number   1
_chemical_formula_structural   Ir2Os
_chemical_formula_sum   'Ir2 Os1'
_cell_volume   43.57070348
_cell_formula_units_Z   1
loop_
 _symmetry_equiv_pos_site_id
 _symmetry_equiv_pos_as_xyz
  1  'x, y, z'
loop_
 _atom_site_type_symbol
 _atom_site_label
 _atom_site_symmetry_multiplicity
 _atom_site_fract_x
 _atom_site_fract_y
 _atom_site_fract_z
 _atom_site_occupancy
  Ir  Ir0  1  0.32913300  0.52629565  0.65807118  1
  Ir  Ir1  1  0.65949863  0.85681000  0.31902227  1
  Os  Os2  1  0.99433798  0.19187734  0.98846914  1
