# generated using pymatgen
data_Ir2Os
_symmetry_space_group_name_H-M   'P 1'
_cell_length_a   4.42630136
_cell_length_b   4.75441018
_cell_length_c   8.25851025
_cell_angle_alpha   90.00057374
_cell_angle_beta   90.00065768
_cell_angle_gamma   90.00154181
_symmetry_Int_Tables_number   1
_chemical_formula_structural   Ir2Os
_chemical_formula_sum   'Ir8 Os4'
_cell_volume   173.79582457
_cell_formula_units_Z   4
loop_
 _symmetry_equiv_pos_site_id
 _symmetry_equiv_pos_as_xyz
  1  'x, y, z'
loop_
 _atom_site_type_symbol
 _atom_site_label
 _atom_site_symmetry_multiplicity
 _atom_site_fract_x
 _atom_site_fract_y
 _atom_site_fract_z
 _atom_site_occupancy
  Ir  Ir0  1  0.70583715  0.44904004  0.63338358  1
  Ir  Ir1  1  0.70584755  0.44366320  0.96788843  1
  Ir  Ir2  1  0.70610925  0.94886527  0.13492634  1
  Ir  Ir3  1  0.20583310  0.11455695  0.63497106  1
  Ir  Ir4  1  0.20613190  0.61430663  0.13339721  1
  Ir  Ir5  1  0.20609595  0.61967680  0.46789990  1
  Ir  Ir6  1  0.20623182  0.11958182  0.30041838  1
  Ir  Ir7  1  0.70573115  0.94383401  0.80035481  1
  Os  Os8  1  0.70619412  0.45248622  0.30272618  1
  Os  Os9  1  0.20586942  0.11087477  0.96557654  1
  Os  Os10  1  0.70608050  0.95254719  0.46558715  1
  Os  Os11  1  0.20573593  0.61095570  0.80278395  1
