# generated using pymatgen
data_IrOs3
_symmetry_space_group_name_H-M   'P 1'
_cell_length_a   2.74624315
_cell_length_b   4.38856679
_cell_length_c   4.77013504
_cell_angle_alpha   90.00043700
_cell_angle_beta   89.99803807
_cell_angle_gamma   89.99999689
_symmetry_Int_Tables_number   1
_chemical_formula_structural   IrOs3
_chemical_formula_sum   'Ir1 Os3'
_cell_volume   57.49000856
_cell_formula_units_Z   1
loop_
 _symmetry_equiv_pos_site_id
 _symmetry_equiv_pos_as_xyz
  1  'x, y, z'
loop_
 _atom_site_type_symbol
 _atom_site_label
 _atom_site_symmetry_multiplicity
 _atom_site_fract_x
 _atom_site_fract_y
 _atom_site_fract_z
 _atom_site_occupancy
  Ir  Ir0  1  0.48831717  0.40773929  0.98941883  1
  Os  Os1  1  0.98868989  0.90770433  0.82159103  1
  Os  Os2  1  0.48856298  0.90773142  0.32397843  1
  Os  Os3  1  0.98857539  0.40767236  0.49106290  1
